Typhoon/resource/大方式/GD201607D.dat
.............总调－联接各省数据2016年7月，大方式 （计算人：刘春晓；校核人：徐光虎） 
...【设备投产】：无
...【机组检修】：无
...【设备检修】：无 
...【方式调整】： 
...【数据修正】: 

...GD1 SYSTEM START
..................广东2016年07月数据：（计算人：段秦刚；校核人：罗钢）
...【设备投产】：220kV双岗站、220kV畲江站、220kV莞双甲乙线、220kV双龙甲乙线、220kV畲长线、220kV畲顺线、220kV畲厂线、
.................220kV畲棉甲乙线、220kV珠拱临线、220kV凤拱线        
...【机组检修】：依海电厂#1、2机组、长湖#1、2机组
...【设备检修】：东莞站#4B变、220kV库长线、220kV英长线、
...【方式调整】：增穗甲线热备用、罗西甲乙线恢复运行、砚西甲线热备用
...【数据修正】：无
...【数据修正】：

..................广州2016年07月数据：（计算人：叶萌；校核人：赵宏伟）
...【设备检修】：220kV番禺站改造，广番乙线、番禺#3变长期检修
...【方式调整】：增城#4变中切开热备用        
...【数据修正】: 广州220kV电厂升压变参数更新、协鑫电厂#1、#3机实测参数更新


...................深圳2016年07月数据：（计算人：王科；校核人：何晓峰）
...【设备投产】：无
...【机组检修】：无
...【设备检修】：无
...【方式调整】：无
...GD1 SYSTEM END


.......GX1 SYSTEM START
.....................广西2016年4月大方式数据： （ 计算人：覃晖   审核人： 邓秋荃   ）
...【设备投产】：220kV俊凯线、500kV钦久甲线
...【机组检修】：
...【设备检修】：
...【方式调整】：
...【其    它】：（1）、永安少一台主变。
......（2）、FWSC11、FWSC12、FWSC2、FWSC22分区建议由GX改为N6，崇左500kV节点CHONGZ50分区建议由N6改为N1
.....GX1 SYSTEM END


...YN1 SYSTEM START
....................云南2016年5月数据：（计算人：邢玉辉；校核人：黄润）
...【设备投产】：220kV平尖Ⅲ回线。
...【机组检修】：无
...【设备检修】：无
...【方式调整】：无
...YN1 SYSTEM END


...GZ1 SYSTEM START
...............贵州2016年5月数据：（计算人：朱灵子  校核人：刘明顺）
...【设备投产】：220kV练欲线、220kV桐夜线，大龙#3主变、欲飞#1主变、夜郎#1主变，更新曹关#1主变、党武#1主变、黔江地区参数
.................更新220kV铜凯Ⅰ/Ⅱ回线、220kV凯孙Ⅰ/Ⅱ回线、220kV松秀Ⅱ回线参数，更改大海子风电场装机容量
...【机组检修】：无
...【设备检修】：无
...【方式调整】：无
...GZ1 SYSTEM END


...HN1 SYSTEM START
.................海南2016年5月数据：（计算人：徐悦洋；校核人：余加喜）
...【设备投产】：220kV福泉I、II线投产。
...【机组检修】：大广坝#1机组检修，牛路岭#1机组检修。
...【设备检修】：无。
...【方式调整】：无。
...【数据修正】: 无。
...HN1 SYSTEM END

.................................................
....................................................................................................
(POWERFLOW,CASEID=GD201607D,PROJECT=2016年07月大方式)
/MVA_BASE=100 \ 
/P_OUTPUT_LIST,FULL \
./RPT_SORT=AREA\
/RPT_SORT=ZONE\
/P_ANALYSIS_RPT,LEVEL=4,*\
/OVERLOAD_RPT,TX=80,LINE=80\
/NEW_BASE,FILE=GD201607D.bse\
/PF_MAP,FILE=GD201607D.MAP\
./ USER_ANALYSIS,FILE=MYLIST.DAT,DEBUG=ON,OUTPUT=MYLIST.PFO \
.///////////////////////     AREA    CONTROL  CARD    \\\\\\\\\\\\\\\\\\\\\\\\
AC GD        PSS2    18.           N2 XX 50 22 GZ SZ DG FS ZS ZH JM HZ SG QY ZJ MM ZQ YF YJ MZ
AC+GD                              HY CC JY ST SW AM
A  HK        CPK1    18.           HK
A  GX        YANTAG1 15.7          N1 GX YL GG NN QZ BH FC VP GL LZ WZ HJ BS CZ HC LB
A  GZ        4WJDLg2 15.8          N4 ZY GY LP AS DY KL TR XY BJ
A  YN        KM21G   20.           YI KM RL ZT DH WS DL NJ DQ LJ CS PE LC BN HH CX YU QJ
A  HN        DONGF1G 20.           E  HE HN HS HW N  S  W
A  TSQ       TSQBG1  18.           N6
A  LT        LONGTAG118.           LT
A  SX        BJZ500  525.          SX
.............................................................................
.交流
I  GZ         TSQ         2300.
..#..I  YN         TSQ         200.
I  TSQ        GX          3300.
I  LT         GX          4200.   
I  GX         GD          6600.
I  HK         GD          231       
I  GD         HN          0       

.直流
I  GZ         GD          6000.
I  TSQ        GD          1800.   
I  SX         GD          2700.    
I  YN         GD          13200.  
.
.///////////////////////   AREA   CONTROL  CARD  END   \\\\\\\\\\\\\\\\\\\\\\\\
.
..............................SPSC SYSTEM START................................
. -------------------------------DC-----------------------------
...天广直流1
.
.       天广直流双极送端有功P MW：180≦P<450   450≦P<720   720≦P<990   990≦P<1260   1260≦P<1530  1530≦P<1800  1800≦P<1980
. MW-HLZ 应投滤波器对应无功 MVar：    160         240          320          480            640          720            720
. GZ-HLZ 应投滤波器对应无功 MVar：    200         300          400          500            700          800           1000
.
B  NF MW-HLZ  230.N6              720.                           
B     GZ-HLZ  220.XX              800.
BD NF TSQ_POS 209.N6    2 150.   5. 140. 274.1800.MW-HLZ  230.
BD NF GNG_POS 198.N2    2 150.   5. 140. 240.1800.GZ-HLZ  220.
LD NF TSQ_POS 209.1GNG_POS 198.  1800 22.16            R900.  500. 15. 18. 960
BD NF TSQ_NEG 209.N6   2 150.    5. 140. 274.1800.MW-HLZ  230.
BD NF GNG_NEG 198.N2   2 150.    5. 140. 240.1800.GZ-HLZ  220.
LD NF TSQ_NEG 209.1GNG_NEG 198.  1800 22.16            R900.  500. 15. 18. 960
.
R  NF MW-HLZ  230.1TSQ_POS 209.  TSQ_POS 209.266.8216.223
R  NF GZ-HLZ  220.1GNG_POS 198.  GNG_POS 198.266.8216.223
R  NF MW-HLZ  230.1TSQ_NEG 209.  TSQ_NEG 209.266.8216.223
R  NF GZ-HLZ  220.1GNG_NEG 198.  GNG_NEG 198.266.8216.223
.
T  NF MW-HLZ  230. TSQ_POS 209.  10622.0    .01412             230. 209.
T  NF GZ-HLZ  220. GNG_POS 198.  10112.0    .01622             230. 198.
T  NF MW-HLZ  230. TSQ_NEG 209.  10622.0    .01412             230. 209.
T  NF GZ-HLZ  220. GNG_NEG 198.  10112.0    .01622             230. 198.
L  NF MW-HLZ  230. TSQM220 230.             0.0001
T  NF GZ-HLZ  220. BEIJIAO 220.             0.0001             220. 220.
..
...高肇直流
.
.         高肇直流双极送端有功P MW： 300≦P<1200  1200≦P<1650  1650≦P<2100   2100≦P<2550   2550≦P<3000  3000≦P<3300  3300≦P<3600
. ANSH-HLZ 应投滤波器对应无功 MVar：      260           390          650           910            1170          1300           1430
. ZQ-HLZ   应投滤波器对应无功 MVar：      280           560          700           980            1260          1680           1820
.
BD NF ANSH-POS210.N4    2 270.   5. 140. 100.3100.ANSH-HLZ 525
BD NF ANSH-NEG210.N4    2 270.   5. 140. 100.3100.ANSH-HLZ 525
BD NF ZQ-POS  199.N2    2 270.   5. 140. 100.3100.ZQ-HLZ   525
BD NF ZQ-NEG  199.N2    2 270.   5. 140. 100.3100.ZQ-HLZ   525
B  NF ANSH-HLZ525.N4              1170                   1006    
B  NF ZQ-HLZ  525.N2              1260                   .978
T  NF ANSH-HLZ525. ANSH-POS210.  1800       .00899            525.0209.7
T  NF ANSH-HLZ525. ANSH-NEG210.  1800       .00899            525. 209.7
T  NF ZQ-HLZ  525. ZQ-POS  199.  1800       .00900            525. 198.9
T  NF ZQ-HLZ  525. ZQ-NEG  199.  1800       .00900            525. 198.9
R  NF ANSH-HLZ525.1ANSH-POS210.  ANSH-POS210 630. 4987521
R  NF ANSH-HLZ525.1ANSH-NEG210.  ANSH-NEG210 630. 4987521
R  NF ZQ-HLZ  525.1ZQ-POS  199.  ZQ-POS  199 630. 4856323
R  NF ZQ-HLZ  525.1ZQ-NEG  199.  ZQ-NEG  199 630. 4856323
LD NF ANSH-POS210.1ZQ-POS  199.  3100  10.0            R1500. 500. 15. 18. 980
LD NF ANSH-NEG210.1ZQ-NEG  199.  3100  10.0            R1500. 500. 15. 18. 980
...mono pole Metallic Return
.LD    ANSH-NEG210.1ZQ-NEG  199.  3000  20.0            R1500. 500. 15. 18. 980
....
B     DCZQ=   500.N2
T     DCZQ=   500. ZQ-HLZ  525.             .0001             500.0500.
..安高线  实测参数2016年3月更新by耿静 电容参数缺 线路型号未更新
L  NF ANSH-HLZ525. 4ANS51  525.1 3785 .00007.00070      .05100 10 4x720/7.48    
L  NF ANSH-HLZ525. 4ANS51  525.2 3785 .00006.00069      .05100 10 4x720/7.51
.纳高线,退运
.#.....L     4NY52   525. ANSH-HLZ525.  2500  .0006 .0083      0.4688
.
./L     DCZQ=   500. YANDU=  500.1      0.00010.0021      0.1099 20 4x400
./L     DCZQ=   500. YANDU=  500.2      0.00010.0021      0.1099 20 4x400
....
...兴安直流
.
.         兴安直流双极送端有功P MW：300≦P≦1050  1050<P≦1200  1200<P≦1650   1650<P≦1950   1950<P≦2100  2100<P≦2400  2400<P≦2700   2700<P≦3000    3000<P≦3300
. XR-HLZ   应投滤波器对应无功 MVar：     280           420           560           700            840            980           1120          1260             1400
. BA-HLZ   应投滤波器对应无功 MVar：     310           465           620           775            930           1085           1240          1395             1550

BD NF XR-POS  210.N4    2 270.   5. 140. 100.3100.XR-HLZ   525
BD NF XR-NEG  210.N4    2 270.   5. 140. 100.3100.XR-HLZ   525
BD NF BA-POS  199.N2    2 270.   5. 140. 100.3100.BA-HLZ   525
BD NF BA-NEG  199.N2    2 270.   5. 140. 100.3100.BA-HLZ   525
B  NF XR-HLZ  525.N4              1400                   1006    
B  NF BA-HLZ  525.N2              1550                   .978
T  NF XR-HLZ  525. XR-POS  210.  1800       .00899            525. 209.7
T  NF XR-HLZ  525. XR-NEG  210.  1800       .00899            525. 209.7
T  NF BA-HLZ  525. BA-POS  199.  1800       .00900            525. 198.9
T  NF BA-HLZ  525. BA-NEG  199.  1800       .00900            525. 198.9
R  NF XR-HLZ  525. XR-POS  210.  XR-POS  210 630. 4987521
R  NF XR-HLZ  525. XR-NEG  210.  XR-NEG  210 630. 4987521
R  NF BA-HLZ  525. BA-POS  199.  BA-POS  199 630. 4856323
R  NF BA-HLZ  525. BA-NEG  199.  BA-NEG  199 630. 4856323
.mono pole Metallic Return
.//LD    XR-NEG  210.1BA-NEG  199.  3000  20.0            R1500. 500. 15. 18. 980
LD    XR-POS  210.1BA-POS  199.  300012.15             R1500. 500. 15. 18. 980
LD    XR-NEG  210.1BA-NEG  199.  300012.15             R1500. 500. 15. 18. 980
..
T     BA-HLZ  525. BAOAN=  500.             .0001             500.0500.
L     XINREN50525. XR-HLZ  525.             0.0001
...
...
...江城直流...............
.         江城直流双极送端有功P MW：300≦P<830  830≦P<1138  1138≦P<1418   1418≦P<1715   1715≦P<1959  1959≦P<2191  2191≦P<2443   2443≦P<2615    2615≦P<2917   2917≦P≦3000
. JINZ-HLZ 应投滤波器对应无功 MVar：    280         420           560           720            860           1000         1160          1320             1480           1640
. HUIZ-HLZ 应投滤波器对应无功 MVar：    280         420           560           700            860           1020         1180          1320             1480           1640

...............
BS    BJZ500  525.SX                  31003000.          1.05    
L     JINZ-HLZ525. BJZ500  525.1     2      .00010
L     JINZ-HLZ525. BJZ500  525.2     2      .00010
B     JINZ-HLZ525.SX              1480                           
B     HUIZ-HLZ525.SX              1480                           
BD    JINZ-POS217.SX    2 200.   5. 140. 100.3000.JINZ-HLZ 525
BD    HUIZ-POS217.SX    2 200.   5. 140. 100.3000.HUIZ-HLZ 525
T     JINZ-HLZ525. JINZ-POS217.  1800       .00833            525.0217.
T     HUIZ-HLZ525. HUIZ-POS217.  1800       .00833            525.0217.
R     JINZ-HLZ525.1JINZ-POS217.  JINZ-POS217.6100047500
R     HUIZ-HLZ525.1HUIZ-POS217.  HUIZ-POS217.6037549875
LD    JINZ-POS217.2HUIZ-POS217.  300010.               I1350. 500. 15. 17.1067
..
BD    JINZ-NEG217.SX    2 200.   5. 140. 100.3000.JINZ-HLZ 525
BD    HUIZ-NEG217.SX    2 200.   5. 140. 100.3000.HUIZ-HLZ 525
T     JINZ-HLZ525. JINZ-NEG217.  1800       .00833            525.0217.
T     HUIZ-HLZ525. HUIZ-NEG217.  1800       .00833            525.0217.
R     JINZ-HLZ525.1JINZ-NEG217.  JINZ-NEG217.6100047500
R     HUIZ-HLZ525.1HUIZ-NEG217.  HUIZ-NEG217.6037549875
LD    JINZ-NEG217.2HUIZ-NEG217.  300010.               I1350. 500. 15. 17.1067
.
B     DCHZ=   500.N2                                     1.
T     HUIZ-HLZ525.2DCHZ=   500.             0.0001            500. 500.
./L     DCHZ=   500. BOLUO=  500.1 5000 .00002.00043      .02041 4  4x720
./L     DCHZ=   500. BOLUO=  500.2 5000 .00002.00043      .02041 4  4x720
.\
.

...楚穗直流   云南楚雄---->广东穗东(±800kV直流)
.         楚穗直流双极送端有功P MW：  0≦P≦750  750<P≦1500  1500<P≦1750  1750<P≦2250  2250<P≦2500  2500<P≦3000  3000≦P≦3250
. YN01-HLZ  应投滤波器对应无功 MVar：    374         561          748            935          1122          1309           1496
. GD01-HLZ  应投滤波器对应无功 MVar：    380         570          760            950          1140          1370           1580
.------------------------------------------------------------------------------------------------------------------------------
.         楚穗直流双极送端有功P MW：3250<P≦3500  3500<P≦4000  4000<P≦4250  4250<P≦4500  4500<P≦5000  5000<P≦5250  5250<P≦5750
. YN01-HLZ  应投滤波器对应无功 MVar：   1683          1870          2057          2244          2431          2618         2805
. GD01-HLZ  应投滤波器对应无功 MVar：   1685          1790          2000          2210          2400          2590         2800

..楚雄换流站-和平站联络线  双回参数实测 091123 LGJ-4×500/13.365KM
L     CXHLZ50 525. HP50    525.1 3600 .00016.00155      .08485  14
L     CXHLZ50 525. HP50    525.2 3600 .00011.00137      .08511  14
..
B     YN01-HLZ525.N2              1870                   1.
B     GD01-HLZ525.N2              1790                   1.
L     YN01-HLZ525. CXHLZ50 525.1            0.0001
L     YN01-HLZ525. CXHLZ50 525.2            0.0001
..
B     DCSUID= 500.XX                                     1.01
T     DCSUID= 500. GD01-HLZ525.1            0.0001            500. 500.
T     DCSUID= 500. GD01-HLZ525.2            0.0001            500. 500.
T     DCSUID= 500. GD01-HLZ525.3            0.0001            500. 500.
...
BD    YN01-POS340.N2    2 200.   5. 120. 100.3125.YN01-HLZ 525
BD    GD01-POS330.N2    2 200.   5. 120. 100.3125.GD01-HLZ 525
T     YN01-HLZ525. YN01-POS340.  3002       .00658            525.0340.
T     GD01-HLZ525. GD01-POS330.  2940       .00670            525.0330.
R     YN01-HLZ525.1YN01-POS340.  YN01-POS 3406431248562
R     GD01-HLZ525.1GD01-POS330.  GD01-POS 3306693845938
LD    YN01-POS340.1GD01-POS330.  3125 11.17            R2000.800.  15. 18.1446
..
BD    YN01-NEG340.N2    2 200.   5. 120. 100.3125.YN01-HLZ 525
BD    GD01-NEG330.N2    2 200.   5. 120. 100.3125.GD01-HLZ 525
T     YN01-HLZ525. YN01-NEG340.  3002       .00658            525.0340.
T     GD01-HLZ525. GD01-NEG330.  2940       .00670            525.0330.
R     YN01-HLZ525.1YN01-NEG340.  YN01-NEG 3406431248562
R     GD01-HLZ525.1GD01-NEG330.  GD01-NEG 3306693845938
LD    YN01-NEG340.1GD01-NEG330.  3125 11.17            R2000.800.  15. 18.1446

......普侨直流----广东(5000MW/±800kV)
.普侨直流  (5000MW/±800kV)——普洱18*160=2880Mvar, 侨乡14*227=3178Mvar
.         普侨直流双极送端有功P MW：0<P≦1500  1500<P≦1875  1875<P≦2250  2250<P≦2625  2625<P≦2875  2875<P≦3250  3250<P≦3500
. YN02-HLZ  应投滤波器对应无功 MVar：  320           480           640           800           960          1120           1280
.         普侨直流双极送端有功P MW：3500<P≦3750  3750<P≦4125  4125<P≦4500  4500<P≦4750  4750<P≦5000  
. YN02-HLZ  应投滤波器对应无功 MVar：  1440          1600          17760         1920          2080        
.------------------------------------------------------------------------------------------------------------------------------
.         普侨直流双极送端有功P MW：0<P≦1250  1250<P≦1750  1750<P≦2250  2250<P≦2500  2500<P≦3125  3125<P≦3500  3500<P≦4000
. GD02-HLZ  应投滤波器对应无功 MVar：  454          681           908          1135          1362          1589           1816
.         普侨直流双极送端有功P MW：4000<P≦4375 4375<P≦4750 4750<P≦5000  
. GD02-HLZ  应投滤波器对应无功 MVar：   2043         2270         2497       
.
BD    YN02-POS340.N2    2 200.   5. 120. 100.3125.YN02-HLZ 525
BD    GD02-POS330.N2    2 200.   5. 120. 100.3125.GD02-HLZ 525
T     YN02-HLZ525. YN02-POS340.  3002       .00658            525.0340.
T     GD02-HLZ525. GD02-POS330.  2940       .00670            525.0330.
R     YN02-HLZ525.1YN02-POS340.  YN02-POS 3406431248562
R     GD02-HLZ525.1GD02-POS330.  GD02-POS 3306693845938
LD    YN02-POS340.1GD02-POS330.  3125 11.17            R2000.800.  15. 18.1427
B     YN02-HLZ525.N2              1600                   1.
B     GD02-HLZ525.N2              1816                   1.
..
BD    YN02-NEG340.N2    2 200.   5. 120. 100.3125.YN02-HLZ 525
BD    GD02-NEG330.N2    2 200.   5. 120. 100.3125.GD02-HLZ 525
T     YN02-HLZ525. YN02-NEG340.  3002       .00658            525.0340. 
T     GD02-HLZ525. GD02-NEG330.  2940       .00670            525.0330. 
R     YN02-HLZ525.1YN02-NEG340.  YN02-NEG 3406431248562   
R     GD02-HLZ525.1GD02-NEG330.  GD02-NEG 3306693845938   
LD    YN02-NEG340.1GD02-NEG330.  3125 11.17            R2000.800.  15. 18.1427  
...
L     YN02-HLZ525. PEHLZ50 525.             0.0001

B     GD02-HLZ500.N2                                     1.02
T     GD02-HLZ500. GD02-HLZ525.1            0.0001            500. 500.
.换顺甲乙线，更新为实测参数，2014年5月 
L     GD02-HLZ500. SHUNDE= 500.1      .00032.00621      .34133    59.351km         4*JL/LB1A-720/50
L     GD02-HLZ500. SHUNDE= 500.2      .00030.00619      .34133    59.402km         4*JL/LB1A-720/50
./换江甲乙线，更新为实测参数，2013年7月
L     GD02-HLZ500. JIANGME=500.1      .0001 .00181      .12326    20km
L     GD02-HLZ500. JIANGME=500.2      .0001 .00181      .12278    20km
.-----AC system
...
....牛从直流  (2*3200MW/500kV)——11*160+9*190   22*174
.         牛从直流双回送端有功P MW：300≦P≦1050  1050<P≦1200  1200<P≦1650   1650<P≦1950   1950<P≦2100  2100<P≦2400  2400<P≦2700   2700<P≦3000    3000<P≦3300
. YN04-HLZ   应投滤波器对应无功 MVar：  640           960           1280            1600          1950           2330          2710            3090           3470（没有备用）
. GD04-HLZ   应投滤波器对应无功 MVar：  698          1044           1392            1740          2088           2436          2784            3132           3480（备用两组）  
BD    XLD1-POS210.N2    2 200.   5. 120. 100.3200.YN04-HLZ525.
BD    XLD1-NEG210.N2    2 200.   5. 120. 100.3200.YN04-HLZ525.
BD    GDX1-POS198.N2    2 200.   5. 120. 100.3200.GD04-HLZ525.
BD    GDX1-NEG198.N2    2 200.   5. 120. 100.3200.GD04-HLZ525.
..同塔双回滤波器容量*2
B     YN04-HLZ525.N2              2710                   1.01
B     GD04-HLZ525.N2              2436                   1.01

T     YN04-HLZ525. XLD1-POS210.  1904       .00840            525.0210. 
T     YN04-HLZ525. XLD1-NEG210.  1904       .00840            525.0210. 
T     GD04-HLZ525. GDX1-POS198.  1788       .00895            525.0198. 
T     GD04-HLZ525. GDX1-NEG198.  1788       .00895            525.0198. 
R     YN04-HLZ525.1XLD1-POS210.  XLD1-POS 2106100047500
R     YN04-HLZ525.1XLD1-NEG210.  XLD1-NEG 2106100047500
R     GD04-HLZ525.1GDX1-POS198.  GDX1-POS 1986037549875
R     GD04-HLZ525.1GDX1-NEG198.  GDX1-NEG 1986037549875
..
LD    XLD1-POS210.1GDX1-POS198.  32009.664             R1300. 500. 15. 18.1226
LD    XLD1-NEG210.1GDX1-NEG198.  32009.664             R1300. 500. 15. 18.1226           4*900mm2
...............
BD    XLD2-POS210.ZT    2 200.   5. 140. 100.3200.YN04-HLZ525.
BD    XLD2-NEG210.ZT    2 200.   5. 140. 100.3200.YN04-HLZ525.
BD    GDX2-POS198.N2    2 200.   5. 140. 100.3200.GD04-HLZ525.
BD    GDX2-NEG198.N2    2 200.   5. 140. 100.3200.GD04-HLZ525.
T     YN04-HLZ525. XLD2-POS210.  1904       .00840            525.0210.
T     YN04-HLZ525. XLD2-NEG210.  1904       .00840            525.0210.
T     GD04-HLZ525. GDX2-POS198.  1788       .00895            525.0198. 
T     GD04-HLZ525. GDX2-NEG198.  1788       .00895            525.0198. 
R     YN04-HLZ525.1XLD2-POS210.  XLD2-POS 2106100047500
R     YN04-HLZ525.1XLD2-NEG210.  XLD2-NEG 2106100047500
R     GD04-HLZ525.1GDX2-POS198.  GDX2-POS 1986037549875
R     GD04-HLZ525.1GDX2-NEG198.  GDX2-NEG 1986037549875
................
LD    XLD2-POS210.1GDX2-POS198.  32009.664             R1300. 500. 15. 18.1226
LD    XLD2-NEG210.1GDX2-NEG198.  32009.664             R1300. 500. 15. 18.1226           4*900mm2
................................................
.
B     DCMUMIA=500.XX                                     1.06
T     DCMUMIA=500. GD04-HLZ525.1            0.0001            500. 500.
L  yn YN04-HLZ525. NZHLZ50 525.             .00010
..从木甲乙
L     DCMUMIA=500. MUMIAN= 500.1      .00023.00586      .2939
L     DCMUMIA=500. MUMIAN= 500.2      .00023.00586      .2939
.从木丙丁线，更新为实测参数，2013年11月03
L     DCMUMIA=500. MUMIAN= 500.3 3640 .00046.00560      .31111                             4*ACSR-720/50，54.234
L     DCMUMIA=500. MUMIAN= 500.4 3640 .00050.00551      .31248                             4*ACSR-720/50，54.234
..库湾-从化双线，更新为实测参数，2014年5月
L     DCMUMIA=500. KUWAN=  500.1 4722 .00028.0055       .297   52.163                      4*ACSR-720/50，52.163                         
L     DCMUMIA=500. KUWAN=  500.2 4722 .00029.00551      .29829 52.163                      4*ACSR-720/50，52.163
.花从甲乙线，更新为实测参数，2013年10月29
L     HUADU=  500. DCMUMIA=500.1 4722 .00025.00553      .29336 51.64                       4*ACSR-720/50，51.64
L     HUADU=  500. DCMUMIA=500.2 4722 .00025.00553      .29628 51.64                       4*ACSR-720/50，51.64 
.博从甲乙线，更新为实测参数，2014年5月
L     BOLUO=  500. DCMUMIA=500.1 4722 .00047.00971      .52194 92.3                        4*ACSR-720/50，92.3 
L     BOLUO=  500. DCMUMIA=500.2 4722 .00045.00978      .52195 92.3                        4*ACSR-720/50，92.3
..
...金中直流  (3200MW/500kV)-----------<20151028,>
..==============================START========================================
..        金中直流双极送端有功   MW：320<P≦640   640<P≦960   960<P≦1440   1440<P≦1600   1600<P≦1632   1632<P≦1920   1920<P≦2240   2240<P≦2400   2400<P≦2624
.. YN05-HLZ 应投滤波器对应无功 MVar：   294          441          441            441            588            588            735            882           1029       
.. LIUZ-HL1 应投滤波器对应无功 MVar：   336          336          504            672            672            840            1008           1008          1176 
..        金中直流双极送端有功   MW：2624<P≦2720   2720<P≦2880   2880<P≦3040   3040<P≦3200   3200<P≦3520   3520<P≦3680   3680<P≦3840   3840<P≦4000
.. YN05-HLZ 应投滤波器对应无功 MVar：   1176           1176           1323           1323           1470           1470           1617           1617 
.. LIUZ-HL1 应投滤波器对应无功 MVar：   1176           1344           1344           1512           1680           1848           1848           1848 
.BD    JZ01-POS210.LJ   2 300. 5.   120. 100. 3200.YN05-HLZ525.
.BD    JZ01-NEG210.LJ   2 300. 5.   120. 100. 3200.YN05-HLZ525.
.BD    GZ01-POS200.N1   2 300. 5.   120. 100. 3200.GUIZHLZ 525.
.BD    GZ01-NEG200.N1   2 300. 5.   120. 100. 3200.GUIZHLZ 525.
.B     YN05-HLZ525.LJ              1323                           
.B     GUIZHLZ 525.N1              1512                           
.T     YN05-HLZ525. JZ01-POS210.  1905       .00866            525. 210.         
.T     YN05-HLZ525. JZ01-NEG210.  1905       .00866            525. 210.            
.T     GUIZHLZ 525. GZ01-POS200.  1815       .00909            525. 198.           
.T     GUIZHLZ 525. GZ01-NEG200.  1815       .00909            525. 198.          
.R     YN05-HLZ525.1JZ01-POS210.  JZ01-POS210.643124856225
.R     YN05-HLZ525.1JZ01-NEG210.  JZ01-NEG210.643124856225
.R     GUIZHLZ 525.1GZ01-POS200.  GZ01-POS200.656254856227
.R     GUIZHLZ 525.1GZ01-NEG200.  GZ01-NEG200.656254856227
.......受端落点柳南
.LD    JZ01-POS210.1GZ01-POS200.  32009.17              R1600.500. 15. 17. 1104
.LD    JZ01-NEG210.1GZ01-NEG200.  32009.17              R1600.500. 15. 17. 1104
.
.L     YN05-HLZ525. JGHLZ50 525.1            0.0001                                                                                              
.L     YN05-HLZ525. JGHLZ50 525.2            0.0001  
.
.L     GUIZHLZ 525. GUIZHO50525.1            0.0001                                                                                              
.L     GUIZHLZ 525. GUIZHO50525.2            0.0001                                                                                               

................................................................................................................
..永富直流  (3000MW/500kV)-----------
.==============================START========================================
.    观音岩直流双极送端有功   MW：300<P≦450   450<P≦600   600<P≦900   900<P≦1050   1050<P≦1200   1200<P≦1350   1350<P≦1650   1650<P≦1800   1800<P≦1950   1950<P≦2100
. DM-HLZ 应投滤波器对应无功 MVar：   350          350          350           350           350            525            525            525           525             700      
. FN-HL1 应投滤波器对应无功 MVar：   220          220          330           440           550            550            660            770           880             990
.    观音岩直流双极送端有功   MW：2100<P≦2400   2400<P≦2550   2550<P≦2850   2850<P≦3000   3000<P≦3150   3150<P≦3300   3300<P≦3600   3600<P≦3750   3750<P≦3900
. DM-HLZ 应投滤波器对应无功 MVar：   875             1050           1050           1225           1225           1400           1400           1575          1575 
. FN-HL1 应投滤波器对应无功 MVar：   1100            1210           1320           1430           1540           1650           1760           1760          1760
.BD    YR-POS  210.CX   2 200. 5    120. 100. 3000.YRHLZ50 525.
.BD    YR-NEG  210.CX   2 200. 5    120. 100. 3000.YRHLZ50 525.
.BD    FN-POS  205 N1   2 200. 5    120. 100. 3000.FNHLZ50 525.
.BD    FN-NEG  205 N1   2 200. 5    120. 100. 3000.FNHLZ50 525.
.
B     YRHLZ50 525.CX              0.                     1.0     
.B     FNHLZ50 525.N1              1310                   1.0     
.T     YRHLZ50 525. YR-POS  210.  1782       .00898            525. 210.         
.T     YRHLZ50 525. YR-NEG  210.  1782       .00898            525. 210.         
.T     FNHLZ50 525. FN-POS  205.  1738       .00921            525. 205.         
.T     FNHLZ50 525. FN-NEG  205.  1738       .00921            525. 205.         
.R     YRHLZ50 525.1YR-POS  210.  YR-POS  210.643.1485.625
.R     YRHLZ50 525.1YR-NEG  210.  YR-NEG  210.643.1485.625
.R     FNHLZ50 525.1FN-POS  205.  FN-POS  205.643.1485.625
.R     FNHLZ50 525.1FN-NEG  205.  FN-NEG  205.643.1485.625
.
.LD    YR-POS  210. FN-POS  205.  30005.14              R1500.500. 15. 17.     
.LD    YR-NEG  210. FN-NEG  205.  30005.14              R1500.500. 15. 17. 
..................................................................................................................
.天一
BQ    TSQDG1  18. N6                  300.300. 100. -80. 1.00
BQ    TSQDG2  18. N6                  300.300. 100. -80. 1.00
BQ    TSQDG3  18. N6                  300.300. 100. -80. 1.00
BQ    TSQDG4  18. N6                  300.300. 100. -80. 1.00
..
.天二
BQ NF TSQBG1  18. N6                  220.220. 80.   -80.0.99
BQ NF TSQBG2  18. N6                  220.220. 80.   -80.0.99
BQ NF TSQBG3  18. N6                  220.220. 80.   -80.0.99
BQ NF TSQBG4  18. N6                  220.220. 80.   -80.0.99
BQ NF TSQBG5  18. N6                  220.220. 80.   -80.1.0
BQ NF TSQBG6  18. N6                  220.220. 80.   -80.1.0
.
.滇东电厂
.BQ yn DD2G    22.0QJ  30.  11.        600.300.  200.-75. 1.03
.BQ yn DD3G    22.0QJ  30.  11.        600. 300. 200.-75. 1.03
.BQ yn DD4G    22.0QJ  30.  11.        600. 300. 200.-75. 1.03
BQ yn DD1G    22.0QJ  30.  11.        600.550.  200.-75. 1.00    
.BQ yn DD2G    22.0DD  30.  11.        600.300.  200.-75. 1.03    
.BQ yn DD3G    22.0DD  30.  11.        600. 300. 200.-75. 1.03
.BQ yn DD4G    22.0DD  30.  11.        600. 300. 200.-75. 1.03
..
.雨汪08年2台机
.BQ yn YW1G    22.0QJ  30.  11.        600.300.  180.     1.00
.BQ yn YW2G    22.0QJ  30.  11.        600. 600. 180.     1.04
.BQ yn YW3G    22.0QJ  30.  11.        600. 100. 180.     1.03
.BQ yn YW4G    22.0QJ  30.  11.        600. 100. 180.     1.03
.BQ yn YW1G    22.0DD  30.  11.        600.300.  180.     1.00    
.BQ yn YW2G    22.0DD  30.  11.        600. 600. 180.     1.04
.BQ yn YW3G    22.0DD  30.  11.        600. 100. 180.     1.03
.BQ yn YW4G    22.0DD  30.  11.        600. 100. 180.     1.03
..
.鲁布革
BQ yn LBG1G   15.7N6                  150. 150.  90.     1.0
BQ yn LBG2G   15.7N6                  150. 150.  90.     1.0
BQ yn LBG3G   15.7N6                  150. 150.  90.     1.0
.BQ yn LBG4G   15.7QJ                  150. 150.  90.     1.0
..
.小湾电站6*700MW
BQ yn XIAOW1G 18.0LC                  700. 700. 200.-120.1020
BQ yn XIAOW2G 18.0LC                  700. 700. 200.-120.1020
BQ yn XIAOW3G 18.0LC                  700. 700. 200.-120.1020
.BQ yn XIAOW4G 18.0LC                  700. 300. 200.-120.1020
.BQ yn XIAOW5G 18.0LC                  700. 500. 200.-120.1020
.BQ yn XIAOW6G 18.0LC                  700. 600. 200.-120.1020
..
.2013年7月至12月每月依次投产溪洛渡10#至15#机，参数仿小湾机组
.BQ yn XLD10G  20.0ZT                  770. 500. 160.-250.1.02
.BQ yn XLD11G  20.0ZT                  770. 600. 160.-250.1.02
.BQ yn XLD12G  20.0ZT                  770. 700. 380.-250.1.01
BQ yn XLD13G  20.0ZT                  770. 700. 160.-250.1.01
BQ yn XLD14G  20.0ZT                  770. 700. 160.-250.1.01
BQ yn XLD15G  20.0ZT                  770. 700. 380.-120.1.01
BQ yn XLD16G  20.0ZT                  770. 700. 380.-120.1.01
BQ yn XLD17G  20.0ZT                  770. 700. 380.-120.1.01
BQ yn XLD18G  20.0ZT                  770. 700. 380.-120.1.01
.
.2012年新投糯扎渡
BQ yn NZD9G   18.0PE                  650. 650  180.-70. 1.00
BQ yn NZD8G   18.0PE                  650. 650. 180.-70. 1.00
BQ yn NZD7G   18.0PE                  650. 650. 180.-70. 1.00
BQ yn NZD6G   18.0PE                  650. 650. 180.-70. 1.00
.2013年6月投产糯扎渡4#机
BQ yn NZD5G   18.0PE                  650. 650. 180.-70. 1.02
BQ yn NZD4G   18.0PE                  650. 650. 180.-70. 1.02
BQ yn NZD3G   18.0PE                  650. 650. 180.-70. 1.02     
.BQ yn NZD2G   18.0PE                  650. 650. 180.-70. 1.01
.BQ yn NZD1G   18.0PE                  650. 650. 180.-70. 1.01
.
.---------金安桥电站4*600MW
.BQ yn JAQ1G   18.0LC                  600. 600.200. -120.1.02
BQ yn JAQ2G   18.0LC                  600. 600.200. -120.1.02
BQ yn JAQ3G   18.0LC                  600. 600.200. -120.1.02
BQ yn JAQ4G   18.0LC                  600. 600.200. -120.1.02
.BQ yn JAQ4G   18.0MW                  600. 600.200. -120.1.02

.盘南电厂
BQ    PANNANG122.0XY 42. 21.          600.600. 100. -140.1.00
BQ    PANNANG222.0XY 42. 21.          600.600. 100. -140.1.00
.BQ    PANNANG322.0XY 42. 21.          600.600. 200. -140.1.00
.BQ    PANNANG422.0XY 42. 21.          600.500. 200. -140.1.00
..
.发耳电厂
BQ    FAERG1  22.0XY 42. 21.          600.500. 100. -70. 1.00
BQ    FAERG2  22.0XY 42. 21.          600.500. 220. -70. 1.00
BQ    FAERG3  22.0XY 42. 21.          600.500. 100. -70. 1.00
.BQ    FAERG4  22.0XY 42. 21.          600.500. 220. -70. 1.00
..
.光照电厂
BQ    GUANGZG115.8XY                  260.230. 75.  -80  1.01
BQ    GUANGZG215.8XY                  260.230. 75.  -80. 1.01
BQ    GUANGZG315.8XY                  260.230. 75.  -80. 1.01
.BQ    GUANGZG415.8XY                  260.260. 75.  -80. 1.00
..
.构皮滩电厂
BQ    4GPTg1  18.0KL                  600.550. 180  -120 1.00
BQ    4GPTg2  18.0KL                  600.550. 180  -120 1.00
BQ    4GPTg3  18.0KL                  600.500. 180  -120 1.00
.BQ    4GPTg4  18.0KL                  600.300. 180  -120 1.01
.BQ    4GPTg5  18.0KL                  600.600. 180  -120 1.01
..
.董菁电厂
BQ    4DJg1   15.7XY18   7.           220.220. 100. -60  1.01    
BQ    4DJg2   15.7XY18   7.           220.220. 100. -60  1.01    
BQ    4DJg3   15.7XY18   7.           220.220. 100. -50  1.01    
.BQ    4DJg4   15.7XY18   7.           220.220. 100. -30  1.01
..
.贵港电厂
BQ GX GUIGCG1 20. GX                  630 600. 165. -80. 1.02    
.BQ GX GUIGCG2 20. GX                  630.500. 165. -80. 1.01
..
.富川电厂
BQ    FUCHUAG127.0GX45.  27.          1045900. 252.      1.00    
.BQ    FUCHUAG227.0GX45.  27.          1045500. 452.      1.01
..
.光坡核电                                           
BQ    GUANGPG124. GX  45.  20.        10861085.479.      1.02    
.BQ    GUANGPG224. N1  45.  20.        1086950. 479.      1.02  
.
.调顺电厂
BQ    ALY1    20. XX28.  15.          600.600. 280.      1.
.BQ    ALY2    20. XX28.  15.          600.300. 280.      1.
..
.龙滩
BQ    LONGTAG118.0LT                  700.700. 280. -150.1.01
BQ    LONGTAG218.0LT                  700.700. 280. -150.1.01
BQ    LONGTAG318.0LT                  700.700. 280. -150.1.01
BQ    LONGTAG418.0LT                  700.700. 280. -150.1.01
BQ    LONGTAG518.0LT                  700.700. 280. -150.1.01
BQ    LONGTAG618.0LT                  700.700. 280. -150.1.01
.BQ    LONGTAG718.0LT                  700.700. 280. -150.1.01
..
.防城港电厂
BQ    FANGCG1 22. GX                  630.500. 125. -80. 1.01
.BQ    FANGCG2 22. GX                  630.300. 125. -80. 1.02
.. 
......惠蓄电厂
BQ    HZX1    18. 5012.  8.           300.295. 90.       1.
BQ    HZX2    18. 5012.  8.           300.295. 90.       1.
BQ    HZX3    18. 5012.  8.           300.295. 90.       1.01
.BQ    HZX4    18. 5012.  8.           300.299. 90.       1.01
.BQ    HZX5    18. 5012.  8.           300.1.   90.       1.01
.BQ    HZX6    18. 5012.  8.           300.300. 90.       1.01
.BQ    HZX7    18. 5012.  8.           300.100. 90.       1.01
.BQ    HZX8    18. 5012.  8.           300.10.  90.       1.02
..
......阳西电厂 (#2机检修 0926-1114 段秦刚)
BQ    YAX1    20. 5036.  10.          600.600. 200.      1.
BQ    YAX2    20. 5036.  10.          600.600. 200.      1.
BQ    YAX3    20. 5036.  10.          660.660. 200.      1.
BQ    YAX4    20. 5036.  10.          660.660. 200.      1.
..DGB1G
.鲤鱼江电厂 2*300MW
BQ    LYJ1    20. 5015.  8.           315.315. 100.      1.
.BQ    LYJ2    20. 5015.  8.           315.250. 100.      1.
..
.桥口电厂  2*650MW
BQ    QIAOK1  22. 5030.  18.          650.650. 145.      1.
.BQ    QIAOK2  22. 5030.  18.          650.376. 145.      1.
.
.....阳江核电  

BQ    YJHD1   24. 5045.  20.          10861080.479.      1.
BQ    YJHD2   24. 5045.  20.          10861080.479.      1.
BQ    YJHD3   24. 5045.  20.          1086985. 479.      1.
.
...清远蓄能  
BQ    QYXN1   15.75012.  8.           320.320. 145.      1.
.BQ    QYXN2   15.75012.  8.           320.320. 145.      1.  
.天一
B  NF TSQD1   230.N6
B  NF TSQD2   230.N6
B  NF TSQD3   230.N6
B  NF TSQD4   230.N6
..
.天二
B  NF TSQ50   525.N6
B  NF TSQB220 230.N60.   0.0
B  NF TSQBZ   525.N6
B  NF TSQ3     35.N6

B  NF TSQB221 230.N6
..
.金州
B     4JINZ5  525.XY
B     4JINZ21 230.XY
B     4JINZ22 230.XY
B     4JINZz1 230.XY
B     4JINZz2 230.XY
B     4JINZ3  38.5XY
..
.马窝
B  NF TSQM50  525.N6
B  NF TSQM220 230.N6
B  NF TSQMZ   525.N6
.(TRANSFORMER 2*-55MVAR)
B  NF TSQM3    35.N6              -110                           
..
.平果
B  NF PINGG50 525.N1
B  NF PINGG22 230.N1
B  NF PINGG-Z1230.N1
B     PINGG-Z2230.N1
.(TRANSFORMER 2*3*-35MVAR)
B  NF PINGG3A 35. N1              -105                           
B     PINGG3B 35. N1              -105                           
..
.来宾
B  NF LAIB50  525.N1
B  NF LAIB22  230.N1
B  NF LAIB-Z  35. N1
.(TRANSFORMER 3*-35MVAR)
B  NF LAIB3   35. N1
..
.桂中
B  NF GUIZHO50525.N1                                             
B  NF GUIZHO21230.N1                                             
B  NF GUIZHO22230.N1                                             
B  NF GUIZHOZ1525.N1                                             
B  NF GUIZHO3A35. N1              60.                                                          
B  NF GUIZHOZ2525.N1                                             
B  NF GUIZHO3B35. N1              0.   

.逢宜
B  GX FENGY50 525.N1

B     FENGY22 230.N1
.(TRANSFORMER 4*-60MVAR,120MVAR)
B  GX FENGY3   35.N1              000.
B     FENGY3B 35. N1              000.
B     FENGYZ1 525.N1
B  GX FENGYZ  525.N1
..
.梧州
B  NF WUZHO50 525.N1
B  NF WUZHO22 230.N1
B  NF WUZHO-Z 525.N1
B  NF WUZHO-Z2525.N1
.(TRANSFORMER 3*-45MVAR,2*60MVAR)
B  NF WUZHO3   35.N1              0.  
.B  NF WUZHO3B  35.N1
.梧州SVC
BQ NF WUZHO3B 35. N1                           210. 0.   1.000.90
..
.......梧州500kV站扩建工程......预计投产日期：2014年3月
.梧州站#3主变,750MVA,（C=2*60,L=1*60）, 525/230±8×1.25%/35
B  NF WUZHO-Z3525.N1
B  NF WUZHO3C  35.N1              0.  
..
.岩滩
B     YANTA50 525.N1
..
.沙塘
B  NF SHATA50 525.N1
B     SHATA22 230.LZ
B     SHAT-Z1 230.LZ
B     SHAT-Z2 230.LZ
.(TRANSFORMER 2*3*-50MVAR,2*60MVAR,)
B     SHATA3A 35. LZ
B     SHATA3B 35. LZ
..
.溯河
B  NF SUHE50  525.N1
B  NF SUHE21  230.N1
B  NF SUHE22  230.N1
B  NF SUHEZ   525.N1
.(TRANSFORMER 2*-60MVAR,0*0MVAR)
B  NF SUHE3   35. N1
..
.合山
B  NF HESAC50 525.N1
..
.罗洞联接
B  NF LUODON50525.N2
..
.百色
B  NF BAIS50  525.N1
B  NF BAISK1  525.N6
B  NF BAIS22  230.N1
B  NF BAIS21  230.N1
B  NF BAIS-Z  525.N1
.(TRANSFORMER 4*-60MVAR,2*60MVAR)
B  NF BAIS3    35.N1              0.                           
B     BAIS-Z2 525.N1
B     BAIS3B  35. N1              -120                           
..
.永安
B  NF YONGAN50525.N1
B  NF YONGAN22230.N1
B  NF YONGAN21230.N1
B  NF YONGANZ 525.N1
.(TRANSFORMER 2*-60MVAR,2*60MVAR)
B  NF YONGAN3  35.N1              0.
..
.南宁
B  NF NANN50  525.N1                                        
B  NF NANN21  230.N1
B  NF NANN22  230.N1
B  NF NANNZ   525.N1
B  NF NANNZ2  525.N1
.(TRANSFORMER 3*-60MVAR,4*60MVAR)
B  NF NANN3    35.N1              -60.                           
B  NF NANN3B   35.N1              0.                             
..
.......南宁500kV站扩建工程......
.南宁站#3主变,750MVA,（C=2*60）, 525/242±2×2.5%/36.75
B  NF NANNZ3  525.N1
B  NF NANN3C   35.N1              120.
T  NF NANN50  525.1NANNZ3  525.  750.1      .01800            525. 525. 
T  NF NANN22  230.1NANNZ3  525.  750.1      -.0020            230. 525. 
T  NF NANN3C  35. 1NANNZ3  525.  240.1      .05530            36.75525. 
..
.邕州
B  NF YONGZ50 525.GX
B  NF YONGZZ  525.GX
B  NF YONGZ22 230.GX
.(TRANSFORMER 2*-60MVAR,2*60MVAR)
B  NF YONGZ3   35.GX              0.                             
..
.久隆变
B     JIULO22 230.N1
B  NF JIULO50 525.GX
B  NF JIULOZ  525.GX
.(TRANSFORMER 3*-60MVAR, 0*60MVAR)
B  NF JIULO3   35.GX               0.
..
.请更新一个数据：.......久隆500kV站扩建工程...预计投产日期：2014年5月
.久隆站#1主变,750MVA,（C=1*60,L=2*60）, 525/230±2×2.5%/36.75
B  NF JIULOZ2 525.N1
B  NF JIULO3B  35.N1              60. 
T  NF JIULO22 230.1JIULOZ2 525.  750.1      -00240            2300052500
T  NF JIULO3B 35.01JIULOZ2 525.  240.1      .05410            37.  52500
T  NF JIULO50 525.1JIULOZ2 525.  750.1      .02100            5250052500
..
.海港.
B  NF HAIGAN50525.N1
B  NF HAIGANZ1525.N1
B  NF HAIGAN3A35. N1              
B  NF HAIGAN22230.N1
.(TRANSFORMER 2*-60MVAR, 2*60MVAR)
B  NF HAIGANZ2525.N1
B  NF HAIGAN3B35. N1
.
.玉林
B  NF YULIN50 525.N1
B     YULIN22 230.N1
B     YULIN-Z1230.N1
B     YULIN-Z2230.N1
.(TRANSFORMER 3*-50MVAR,1*50MVAR,1*60MVAR)
B     YULIN3A 35. N1              0.  
.(TRANSFORMER 2*-50MVAR, 2*60MVAR)
B     YULIN3B 35. N1              120.  
..
..美林站 1台主变,1*1000MVA,（C=2*60,L=3*60）, 525/230±2*2.5%/36.75，2015年7月
B  NF MEILIN50525.N1                                             
B     MEILIN22230.N1                                             
B     MEILINZ1230.N1 
..(TRANSFORMER,2*60MVar,3*-60MVar)                                            
B     MEILIN3A35. N1                                                                                                                
.                                          
.茂名联接
B  NF MAOMIN50525.N2
..
.安顺(安顺站母线高抗136MVar)
B  NF 4ANS51  525.AS              -000                   1.01
B     4ANS21  230.AS
B     4ANS22  230.AS
B     4ANSz1  230.AS
B     4ANSz2  230.AS
.(TRANSFORMER 4*-60MVAR )
B     4ANS31  38.5AS              0.
B     4ANS32  38.5AS              0.
..
.青岩变
B     4QINGY5 525.GY                                     1.00    
B     4QINGY21230.GY
B     4QINGY22230.GY
B     4QINGY23230.GY
B     4QINGY3138.5GY
B     4QINGYz1230.GY
.(TRANSFORMER 4*-60MVAR )
B     4QINGY3238.5GY
B     4QINGYz2230.GY
.B     4QINGY3338.5GY
.B     4QINGYz3230.GY
..
.河池
B  NF HECHI50 525.N1                                     1.00    
B  NF HECHI22 230.N1
.B  NF HECHI21 230.N1
B  NF HECHIZ1 525.N1
B  NF HECHIZ2 525.N1
.(TRANSFORMER 4*-60MVAR,1*60MVAR)电容未投运
B  NF HECHI3A  35.N1              0
B  NF HECHI3B  35.N1              0
..
.柳东
B     LIUDO50 525.N1
B     LIUDOZ1 230.N1
B     LIUDO22 230.N1
.(TRANSFORMER 3*-60MVAR,2*60MVAR)
B     LIUDO3A 35. N1              60. 
..
..柳东扩#2
B     LIUDOZ2 230.N1
B     LIUDO3B 35. N1              0.
..
.贺州
B  NF HEZHOU50525.N1
B     HEZHOU22230.N1
B  NF HEZHOUZ1230.N1
B  NF HEZHOUZ2230.N1
.(TRANSFORMER  4*60MVAR,4*-60MVAR,)
B  NF HEZHOU3A35. N1              0.  
B  NF HEZHOU3B35. N1              0.  
..
.......贺州500kV站扩建工程......预计投产日期：2014年3月
.贺州站#3主变,750MVA,（C=3*60）, 525/230±8×1.25%/35
B  NF HEZHOUZ3230.N1
B  NF HEZHOU3C 35.N1              0.  
..
.防城港电厂
B  NF FCG50   525.GX
..
.贵港
B  GX GUIGC50 525.N1
..
.富川
B  GX FUCHUA50525.N1
..
.龙滩
B     LONGTA50525.N1
..
.鲤鱼江电厂
B     LIYUJIA=500.XX
.
.桥口电厂
B     QIAOKOU=500.XX
.
.崇左（大新）变
B     CHONGZ50525.N1
B     CHONGZ22230.N1
B     CHONGZZ1230.N1
B     CHONGZZ2230.N1
.(TRANSFORMER 3*-60MVAR, 72+78MVAR)
B     CHONGZ3A36. N1              -180                           
B     CHONGZ3B36. N1              
..
.黎平 2 TRANS 3*-60MVAR, 78+84MVAR   2*-60MVAR, 2*60MVAR............
B     4LIP51  525.KL
B     4LIP52  525.KL
B     4LIP21A 230.KL
B     4LIP21B 230.KL
B     4LIP22  230.KL
B     4LIP31  35. KL              0.                           
B     4LIP32  35. KL              -120                           
B     4LIPz1  230.KL                 
B     4LIPz2  230.KL
..
.桂林
B     GUILIN51525.N6                                     1.00    
B     GUILIN52525.N1
B     GUILIN22230.N1
B     GUILIN-Z525.N1
B     GUILINZ2525.N1
.(TRANSFORMER 4*-60MVAR, 66+2*60MVAR)
B     GUILIN3 35. N1              0    
B     GUILIN4 35. N1              0                             
L     GUILIN51525. GUILIN52525.             0.0001
..
.贤令山联接
B     XIANLS50525.N2
..
.盘南
B     PANNAN50525.XY
B     PANNAN21230.XY
..
.八河
B     BAHE50  525.XY
..
.兴仁
B     XINREN50525.XY
..
.发耳
B     FAER50  525.XY
..
.光照
B     GUANGZ50525.XY
..
.构皮滩
B     4GPT51  525.KL
..
.惠蓄
B     HZXUNEN=500.XX
.
.阳西
B     YANGXI= 500.XX
.
.....阳江核电
B     YANGJHD=500.XX1.
.
...清远蓄能
B     QINGYXN=500.XX                                     1.06
.
.调顺
B     AOLIYOU=500.XX
.董箐
B     4DJ51   525.XY
..
.独山
.(TRANSFORMER 2*60MVAR )
B     DUSHAN50525.N6
.(TRANSFORMER 2*60MVAR )
B     DUSHAN21230.GY
B     DUSHANz1230.GY
B     DUSHAN3138.5GY              00.
.
.500kV桂南站
.B  NF GUINAN50525.N6
.B  NF GUINANZ 230.GX
.B  NF GUINAN22230.GX
.B  NF GUINAN3  35.GX              60.

.武平变 投产1台主变 1*750MVA
B     WUPING50525.N1    
B     WUPING22230.N1
.(TRANSFORMER 2*60Mvar, 2*-60Mvar)
B     WUPING3A36. N1              0.                           
.(TRANSFORMER 2*60Mvar, 2*-60Mvar)                            
B     WUPING3B36. N1
B     WUPINGZ1230.N1              0.                           
B     WUPINGZ2230.N1 
.
.500kV富宁变,抵抗2×2×60MVar，低容2×2×60MVar 
B  yn FUNIN50 525.WS                                     1.01    
B  yn FUNIN50T525.WS 
B  yn FUNIN51T525.WS                                        
B  yn FUNIN22 230.WS                             
B  yn FUNIN3A 37.5WS              -120. 
B  yn FUNIN3B 37.5WS              -120.  
.
.光坡核电
B     GUANGP50525.N1 
.
.=======================STATCOM=====================================
.....STATCOM接入点  东莞，水乡，北郊，木棉
B     1DONGGUA35. XX
B     1SHUIXIA35. XX
B     1BEIJIAO35. XX
B     1MUMIAN 35. XX
.....STATCOM专用变                         
.东莞，北郊，木棉
.240MVA，242±4×2.5%/35kV,12%
T     1DONGGUA35.  DONGGUAN220.  240.       .05               35.  242.  
T     1MUMIAN 35.0 MUMIAN  220.  240.       .05               35.  242. 
T     1BEIJIAO35.  BEIJIAO 220.  240.       .05               35.  242.
.水乡
.240MVA,525±2×2.5%/35kV,12%
T     1SHUIXIA35.  SHUIXIA=500.  240.       .05               35.  525.   
.
.\\\\\\\\\\\\\\\\\\\\\\\\\\\SPSC 500KV TIE LINE\\\\\\\\\\\\\\\\\\\\\\\\\\
.光照-兴仁
L     GUANGZ50525. XINREN50525.  2000 0.00050.0064      0.3408  62 4X400
..
.发耳－八河双回线，LGJ4*400,129km，八河侧120MVAR高抗
L     FAER50  525. BAHE50  525.1 2900 .00099.01292      0.7383 129 4X400
L+    FAER50  525. BAHE50  525.1           109.
L     FAER50  525. BAHE50  525.2 2900 .00099.01292      0.7383 129 4X400
L+    FAER50  525. BAHE50  525.2           109.
..
.董箐-八河单回线
L     4DJ51   525. BAHE50  525.  1500  .0021 .0111       .0102
.
.盘南－兴仁换双线
L     PANNAN50525. XINREN50525.1 2500 .00041 .0071      0.3939     4X400
L     PANNAN50525. XINREN50525.2 2500 .00041 .0071      0.3939     4X400
..
.八河－青岩，4×400，126km
L     BAHE50  525. 4QINGY5 525.1 2980 .00096.01262      0.7212 126 4X400
L+    BAHE50  525. 4QINGY5 525.1           109.
..
./青八乙线，参数参照青八甲线
L     BAHE50  525. 4QINGY5 525.2 2980 .00096.01262      0.7212 126 4X400
L+    BAHE50  525. 4QINGY5 525.2           109.
..
.//.兴仁－独山4*LGJ400,260km
.//L     XINREN50525. DUSHAN50525.       .00199.02604      1.4881
.//L+    XINREN50525. DUSHAN50525.            150.
..
.八河－安顺，4×300，45km
.//安八线增容改造工程参数修改2012.7.26
./修改安八线热稳限流值至4000 
L     BAHE50  525. 4ANS51  525.  4000 .0006 .0054       0.327554.3
..
.八河－兴仁1，4×300，78km
L     BAHE50  525. XINREN50525.1 2756 .00077.00788      0.4464  78 4X300
.八河－兴仁2，4×400，89km
L     BAHE50  525. XINREN50525.2 2786 .00068.00892      0.5094  89 4X400
..
.兴仁-金州..
L     XINREN50525. 4JINZ5  525.1 2756  .0006 .0057      0.3117
L     XINREN50525. 4JINZ5  525.2 2300  .0006 .0057      0.3117
..金州-天二..
L     4JINZ5  525. TSQ50   525.  2756  .0002 .0021      0.1166
L+    4JINZ5  525. TSQ50   525.            136.
..
.天平及天平串补
B     TPSC    525.N1
B     TPSC1   525.N1
B     TPSCP   525.N1
B     TPSC1P  525.N1
.实测参数2016年3月更新by耿静 长度和型号未更新
L  NF TSQ50   525.1TPSC    525.  2280 .00331.03028      1.7967 313              
L+    TSQ50   525. TPSC    525.  136.
L  NF TPSC    525.1TPSCP   525.             -.0106
.L  NF TPSCP   525.1PINGG50 525.             -00152
L+    TPSCP   525. PINGG50 525.            136.
.L  NF TPSC    525.1TPSCP   525.             0.0001
L  NF TPSCP   525.1PINGG50 525.             0.0001
.实测参数2016年3月更新by耿静 长度和型号未更新
L  NF TSQ50   525.1TPSC1   525.  2280 .00326.03062      1.9552 316              
L+    TSQ50   525. TPSC1   525.  136.
./固定段
L  NF TPSC1   525.1TPSC1P  525.             -.0106
./可控段
.L  NF TPSC1P  525.1PINGG50 525.             -00152
L+    TPSC1P  525. PINGG50 525.            136.
.L  NF TPSC1   525.1TPSC1P  525.             0.0001
L  NF TPSC1P  525.1PINGG50 525.             0.0001
..
.平来 
L  NF PINGG50 525. LAIB50  525.1 2280 .00163.01713      1.0379 180                          4xLGJQ-300
L+    PINGG50 525. LAIB50  525.1           136.
.实测参数2016年3月更新by耿静 长度和型号未更新
L  NF PINGG50 525. LAIB50  525.2 2280 .00175.01792      1.0336 180                          4xLGJQ-300
L+    PINGG50 525. LAIB50  525.2           136.
..
.来梧
L  NF LAIB50  525. WUZHO50 525.1 2228 .00220.02297      1.3906 238                          4xLGJQ-300
L+    LAIB50  525. WUZHO50 525.1 136.      136.
.实测参数2016年3月更新by耿静 长度和型号未更新
L  NF LAIB50  525. WUZHO50 525.2 2228 .00220.02346      1.3752 241                          4xLGJQ-300
L+    LAIB50  525. WUZHO50 525.2           136.
..
.梧罗 更新为实测，2014年5月，4×LGJ-300/40，200.348，201.447
L  NF WUZHO50 525.2LUODON50525.1 2228 .00201.01948      1.1473                    4×LGJ-300/40，200.348
L+    WUZHO50 525.2LUODON50525.1           136.
L  NF WUZHO50 525.2LUODON50525.2 2228 .00184.01988      1.1603                    4×LGJ-300/40，201.447
L+    WUZHO50 525.2LUODON50525.2           136.
..
.500kV天马
L  NF TSQM50  525. TSQ50   525.  2756 .00015.00199      .11913  19                          4xLGJ-400
..
.罗平－百色及罗百串补
.B     BAISLPK1525.N6
.B     LBSC1   525.N6
..实测参数2016年3月更新by耿静 长度和型号未更新
.L  NF LP50    525.1LBSC1   525.  3000 .001720.0217      2.195                   
.L+    LP50    525. LBSC1   525.  164.
.L  NF LBSC1   525. BAISLPK1525.             -.0111
..L  NF LBSC1   525. BAISLPK1525.             0.0001
.L+    LBSC1   525. BAISLPK1525.            164.
.L  NF BAIS50  525. BAISLPK1525.             0.0001
..罗百II
.B     BAISLPK2525.N6
.B     LBSC2   525.N6
.L  NF LP50    525.1LBSC2   525.  3000 .001790.0218      2.195 289                           6xLGJ-300
.L+    LP50    525. LBSC2   525.  164.
.L  NF LBSC2   525. BAISLPK2525.             -.0111
..L  NF LBSC2   525. BAISLPK2525.             0.0001
.L+    LBSC2   525. BAISLPK2525.            164.
.L  NF BAIS50  525. BAISLPK2525.             0.0001
..
.罗马  实测参数2016年3月更新by耿静 
.L  NF LP50    525.1TSQM50  525.  3000 .00077.00880      .5323287.2                 4xLGJ-400/50
..
.马百及马百串补  实测参数2016年3月更新by耿静
B     MBSC    525.N6
L  NF TSQM50  525.1MBSC    525.  2580 .00185.02335      1.2483 212                 4xLGJ-400/50
L+    TSQM50  525.1MBSC    525.  108.
L  NF MBSC    525.1BAISK1  525.             -.0114
.L  NF MBSC    525.1BAISK1  525.             .0001
L+    MBSC    525.1BAISK1  525.            108.
L  NF BAISK1  525. BAIS50  525.             0.0001
..
.百南
.L  NF BAIS50  525. NANN50  525.1 2730 .00171.02141      1.0196 212                          4xLGJ-400/35
.L+    BAIS50  525. NANN50  525.1 108.      120.
.L  NF BAIS50  525. NANN50  525.2 2730 .00171.02141      1.0196 212                          4xLGJ-400/35
.L+    BAIS50  525. NANN50  525.2 108.      120.

.百永
L  NF BAIS50  525. YONGAN50525.1 2280 .00087.01095      0.5214112                           4xLGJ-400/35
L+    BAIS50  525. YONGAN50525.1 108.
L  NF BAIS50  525. YONGAN50525.2 2280 .00087.01095      0.5214112                           4xLGJ-400/35
L+    BAIS50  525. YONGAN50525.2 108.
..
.永南
L  NF YONGAN50525. NANN50  525.1 2656 .00084.01046      0.4982107                            4xLGJ-400/35
L+    YONGAN50525. NANN50  525.1           120.
L  NF YONGAN50525. NANN50  525.2 2656 .00084.01046      0.4982107                            4xLGJ-400/35
L+    YONGAN50525. NANN50  525.2           120.
..
.南玉，更新实测，2014年5月，4×LGJ-400/35，197.755，202.153
L  NF NANN50  525. YULIN50 525.1 2596 .00160.01996      .94989                               4×LGJ-400/35，197.755       
L+    NANN50  525. YULIN50 525.1           180.
L  NF NANN50  525. YULIN50 525.2 2596 .00175.01936      1.1958                                4×LGJ-400/35，202.153 
L+    NANN50  525. YULIN50 525.2           180.
..
.玉茂及玉茂串补
B  NF YULINSC1525.N1
B  NF YULINSC2525.N1
.L  NF YULIN50 525. YULINSC1525.             .0001
L  NF YULIN50 525. YULINSC1525.             -.0057
...已更新
L  NF YULINSC1525.2MAOMIN50525.1 2712 .00131.01422      .68017 141.645                      
L+    YULINSC1525. MAOMIN50525.1 120.
.L  NF YULIN50 525. YULINSC2525.             .0001
L  NF YULIN50 525. YULINSC2525.             -.0057
.更新实测参数，2014年5月
L  NF YULINSC2525.2MAOMIN50525.2 2712 .00158.01445      .80875 143.098                      4xLGJ-400/35，143.098
L+    YULINSC2525. MAOMIN50525.2 120.
..
.
.//.青岩－独山 实测参数2016年3月更新by耿静 
L     4QINGY5 525. DUSHAN50525.1 3236 .00099.01115      .74108113.               4xLGJ400/50  
L+    4QINGY5 525. DUSHAN50525.1 136.
.实测参数2016年3月更新by耿静
L     4QINGY5 525. DUSHAN50525.2 3236 .00081.01146      .66458112.               4xLGJ400/50
L+    4QINGY5 525. DUSHAN50525.2 136.
..//
.//.独山－串补－河池I,4*LGJ400,200km
B     HCSC    525.N1
.实测参数2016年3月更新by耿静
L     DUSHAN50525. HCSC    525.  2644 .00150.02020      1.2052213                4xLGJ400/50
L     HCSC    525. HECHI50 525.             -.0112
.L     HCSC    525. HECHI50 525.             .0001
L+    HCSC    525. HECHI50 525.            136.
.//.独山－串补－河池II
B     HCSC1   525.N1
.实测参数2016年3月更新by耿静
L     DUSHAN50525. HCSC1   525.  2644 .00346.01776      1.3063211                4xLGJ400/50          
L     HCSC1   525. HECHI50 525.             -.0112
.L     HCSC1   525. HECHI50 525.             .0001
L+    HCSC1   525. HECHI50 525.            136.
..
.河池－柳东(4*400,150KM)
L  NF HECHI50 525. LIUDO50 525.1 2596 .00115.01503      0.8585 150                          4xLGJ-400
L+    HECHI50 525. LIUDO50 525.1           120.
L  NF HECHI50 525. LIUDO50 525.2 2596 .00115.01503      0.8585 150                          4xLGJ-400
L+    HECHI50 525. LIUDO50 525.2           120.
..
.沙塘－柳东，更新实测，2014年5月，4×LGJ-400，39.233
L  NF SHATA50 525. LIUDO50 525.1 2596 .00029.00344      .21344                              4×LGJ-400，39.233         
L  NF SHATA50 525. LIUDO50 525.2 2596 .00030.00356      .22643                              4×LGJ-400，39.233                   
..
.柳东－贺州(4*400,205KM)柳贺线柳东侧无高抗
.贺州站加装串补，串补度为40%
B  NF HEZHOSC1525.N1
B  NF HEZHOSC2525.N1
L     HEZHOU50525. HEZHOSC1525.             -.0082
.L     HEZHOU50525. HEZHOSC1525.             .0001
L  NF LIUDO50 525. HEZHOSC1525.1 2596 .00157.02054      1.1733 205.                         4xLGJ-400
L+    LIUDO50 525. HEZHOSC1525.1           110.
L     HEZHOU50525. HEZHOSC2525.             -.0082
.L     HEZHOU50525. HEZHOSC2525.             .0001
L  NF LIUDO50 525. HEZHOSC2525.2 2596 .00157.02054      1.1733 205.                         4xLGJ-400
L+    LIUDO50 525. HEZHOSC2525.2           110.

.贺罗 RX
.20130227张建新
L  NF HEZHOU50525.2LUODON50525.1 2596 .00190.02666      1.5209 253                          4xLGJ-400/35
L+    HEZHOU50525. LUODON50525.1 110.      110.
L  NF HEZHOU50525.2LUODON50525.2 2596 .00212.02516      1.5307 253                          4xLGJ-400/35
L+    HEZHOU50525. LUODON50525.2 110.      110.
..
.500kV线路 溯来线 实测参数2016年3月更新by耿静 线路长度及型号、电阻未更新
L  NF SUHE50  525. LAIB50  525.1 1250       .00430      .24916                  
.实测参数2016年3月更新by耿静 线路长度及型号未更新
L  NF SUHE50  525. LAIB50  525.2 1250 .00048.00426      .24107                  
..
.500kV线路 山溯线 实测参数2016年3月更新by耿静 电阻、电抗、电纳未更新
L  GX HESAC50 525. SUHE50  525.1            0.0001            .676               4xLGJ-300/25
.实测参数2016年3月更新by耿静 电阻、电抗、电纳未更新
L  GX HESAC50 525. SUHE50  525.2            0.0001            .759               4xLGJ-300/25
L  GX HESAC50 525. SUHE50  525.3            0.0001
..
.贵逢甲乙
L     FENGY50 525. GUIGC50 525.1 1250 .00003.00029      .01753 3.0                          4xLGJ-300/25
L     FENGY50 525. GUIGC50 525.2 1250 .00003.00029      .01753 3.0                          4xLGJ-300/25
..
.富川-贺州双回线（富川电厂—贺州I、II回，2012年6月投产,40.5km）实测参数2012.7.27更新by刘春晓
L     FUCHUA50525. HEZHOU50525.1 273010.00040.0038      0.233640.5                          4xLGJ-400/50
L     FUCHUA50525. HEZHOU50525.2 273010.00040.0038      0.233740.5                          4xLGJ-400/50
..
.光坡核电～海港I,26.5km，4xLGJ-630......更新为实测参数2015年7月
L     GUANGP50525. HAIGAN50525.1 20001.00014.00264      .1653925.7                          4xLGJ-630/45                                        
.光坡核电～海港II,26.5km，4xLGJ-400
L     GUANGP50525. HAIGAN50525.2 20001.00012.00246      .1579825.5                          4xLGJ-630/45                                    
.
..光坡核电～南宁I,146km，4xLGJ-630
L     GUANGP50525. NANN50  525.1 38461.00061.01364      .87122 146                          4xLGJ-630/45                                        
L+    GUANGP50525. NANN50  525.1 120.
L     GUANGP50525. NANN50  525.2 38461.00061.01364      .87122 146                          4xLGJ-630/45                                        
L+    GUANGP50525. NANN50  525.2 120.
.逢玉
L     YULIN50 525. FENGY50 525.  2500 .00074.00758      0.4293 75.0                         4xLGJ-300/25
..
.逢来
L     FENGY50 525. LAIB50  525.  2204 .00084.00859      0.4865 85.0                         4xLGJ-300/25
..
.平南（设计院提供的参数）
.L  NF NANN50  525. PINGG50 525.  2020 .00084.00981      .53514  97                          4xLGJ-300/25
.2013.01更新
L  NF NANN50  525. PINGG50 525.  2280 .00105.00959      .5585 96.6                        4xLGJ-300
.
.岩平，更新实测参数，2014年5月，4×LGJQ-300，100.3
L     YANTA50 525. PINGG50 525.  2500 .00092.00985      .53599                            4×LGJQ-300，100.3                                    
L+    YANTA50 525. PINGG50 525.  136.
..
.岩沙 实测参数2016年3月更新by耿静 电纳未更新
L     YANTA50 525. SHATA50 525.  2500 .00186.02129      1.3736214.               4×LGJQ-300/40      
L+    YANTA50 525. SHATA50 525.            136.
..
.沙来（退运）
......#.........L     SHATA50 525. LAIB50  525.  2500 0.00110.0112      0.6296  99                          4xLGJ-300/40
.
.//沙中甲线，长度55.3km，更新实测参数2016年2月
L     SHATA50 525. GUIZHO50525.1 25001.00046.00562      .33177                              4xLGJ-400/50   
                                     
.//来中甲线，长度62.4km，更新实测参数2016年2月                                       
L     LAIB50  525. GUIZHO50525.1 25001.00051.00622      .37325                              4xLGJ-400/50   
  
./柳中甲线，更新实测参数2016年4月                                    
L     GUIZHO50525. LIUDO50 525.1 25921.00026.00582      0.348559.4                          JL/G1A-400/35                                        
..
.龙滩送出
.龙滩－河池(4*400,163KM)  
...实测参数2016年3月更新by耿静 长度和型号未更新
L     LONGTA50525. HECHI50 525.1 2644 .00125.01584      0.9637 163             
L+    LONGTA50525. HECHI50 525.1           136.
.
.龙滩－沙塘(4*400,278KM)
L     SHATA50 525. LONGTA50525.1 2596 .00213.02785      1.5912  278                         4xLGJ-400
L+    SHATA50 525. LONGTA50525.1 109       136.
L     SHATA50 525. LONGTA50525.2 2596 .00213.02785      1.5912  278                         4xLGJ-400
L+    SHATA50 525. LONGTA50525.2 109       136.
.
.龙滩－平果(4*400,226KM)
L     PINGG50 525. LONGTA50525.  2656 .00173.02264      1.2935  226
L+    PINGG50 525. LONGTA50525.  109.      109.

..防城港－久隆
.L     FCG50   525. JIULO50 525.  2730 0.00060.0092      0.5219                              4xLGJ-400
..
.500kV 钦州-久隆
L     QINZH50 525. JIULO50 525.  24281000026000362      02256138.3                          4xLGJ-400/35
..
.海港π接防久、防邕线
.海港－久隆.海久线JL/LB1A-400/35，48.364km，更新为实测参数，2014年5月
L     HAIGAN50525. JIULO50 525.  20001.00032.00476      .29428    48.364km                  JL/LB1A-400/35
..
.海港－邕州.........4*JL/LB20-400 +4*LGJ400 ...137km...
L     HAIGAN50525. YONGZ50 525.  30001000092001297      080808 137                          4xLGJ-400/35
..
.海港－防城港×2....4*JL/LB20-400/35.....31.663km.........
L     HAIGAN50525. FCG50   525.1 20001000021000300      01869831.7                          4xLGJ-400/35
L     HAIGAN50525. FCG50   525.2 20001000021000299      01863931.6                          4xLGJ-400/35..
.久玉线
.L     JIULO50 525. YULIN50 525.  2000 .00126.01643      0.9387 164                          4xLGJ-400
.L+    JIULO50 525. YULIN50 525.            136.
...久隆～美林,π接久隆～玉林，186.5km，4xLGJ-400
L     JIULO50 525. MEILIN50525.  20001.00122.01759      109592 186                          4xLGJ-400/35  
L+    JIULO50 525. MEILIN50525.            150.                                 
...玉林～美林I,π接久隆～玉林，42.3km，4xLGJ-400
L     MEILIN50525. YULIN50 525.  2000 .00028.00401      .2495042.3                          4xLGJ-400/35                                        
...玉林～美林I   47.9km，4xLGJ-400
L     MEILIN50525. YULIN50 525.2 2000 .00031.00454      .2825347.9                          4xLGJ-400/50                                        
..
.500kV 南宁-邕州
L     NANN50  525. YONGZ50 525.1 2500 .00048.00631      0.3606                              4xLGJ-400
L     NANN50  525. YONGZ50 525.2 2500 .00048.00631      0.3606                              4xLGJ-400
..
.施秉－黎平－桂林－贤令山－花都
.施黎甲乙线，更新实测，2014年5月，6×LGJ-300/40，144.693，143.321
L     4SHIB51 525. 4LIP51  525.1 3420 .00083.01218      1.0461                            6×LGJ-300/40，144.693
L+    4SHIB51 525. 4LIP51  525.1 164.
L     4SHIB51 525. 4LIP51  525.2 3420 .00075.01238      1.0238                            6×LGJ-300/40，143.321
L+    4SHIB51 525. 4LIP51  525.2 164.
.
L     4LIP51  525. GUILIN51525.1 3420 .0011 .0135       1.405 185  6X300
L+    4LIP51  525. GUILIN51525.1 136.      109.
L     4LIP51  525. GUILIN51525.2 3420 .0011 .0135       1.405 185  6X300
L+    4LIP51  525. GUILIN51525.2 136.      109.
.
.桂山及桂山串补
.
B     GUILSC1 525.N1
B     GUILSC2 525.N1
.L     GUILIN52525. GUILSC1 525.             .0001
L     GUILIN52525. GUILSC1 525.             -.0112
.// 投串补 L     GUILIN52525. GUILSC1 525.             -.0056
L     GUILSC1 525.2XIANLS50525.1 3342 .0018 .0223       2.323 306  6X300
L+    GUILSC1 525. XIANLS50525.1 164.      191.
..
.L     GUILIN52525. GUILSC2 525.             .0001
L     GUILIN52525. GUILSC2 525.             -.0112
.// 投串补 L     GUILIN52525. GUILSC2 525.             -.0056
L     GUILSC2 525.2XIANLS50525.2 3342 .0018 .0223       2.323 306  6X300
L+    GUILSC2 525. XIANLS50525.2 164.      191.
.
..清花甲线，线路长度50km，线型4×HL/G1A-400/35，2×KTACSR/EST-530，更新为实测参数2016年2月
L     QINGYXN=500. HUADU=  500.  2835 .00037.00494      .3015150   4X400                                                                        
..
..桂林－柳东
L     LIUDO50 525. GUILIN52525.1 2656 .00091.01281      .79805 135
L+    LIUDO50 525. GUILIN52525.1           109.
L     LIUDO50 525. GUILIN52525.2 2656 .00091.01281      .79805 135
L+    LIUDO50 525. GUILIN52525.2           109.
..
.红河-砚山双回4*500，132.33km  实测 080820
L  yn HH50    525. YSH50   525.1 2500 .00081.01341      .76826 132 4X500
L+    HH50    525. YSH50   525.1 109.
L  yn HH50    525. YSH50   525.2 2500 .00078.01347      .76861 132 4X500
L+    HH50    525. YSH50   525.2 109.
..
.砚山-崇左6*300,327KM
.B     YSHSC   525.N6
.B     YSH50C  525.N6
.L     YSH50   525. YSH50C  525.             .0001
.L+    YSH50   525. YSH50C  525.  191.
.L     YSH50C  525. YSHSC   525.             -.0143
.L     YSH50C  525. YSHSC   525.             -.0072
.L     YSH50C  525. YSHSC   525.             .0001
.更新为实测，2014年5月， 6×LGJ-300/40，333.73
.L     YSHSC   525. CHONGZ50525.  3420 .00282.02629      2.6626                  6×LGJ-300/40，333.73
.L+    YSHSC   525. CHONGZ50525.            191.

.B     YSHSC1  525.N6
.B     YSH50C1 525.N6
..
.B     YSHSC2  525.N6
.B     YSH50C2 525.N6
....1回
...